<?xml version="1.0" encoding="UTF-8"?>

<!-- generated on 2025-01-01 15:57:16 by Eclipse SUMO netedit Version 1.21.0
<neteditConfiguration xmlns:xsi="http://www.w3.org/2001/XMLSchema-instance" xsi:noNamespaceSchemaLocation="http://sumo.dlr.de/xsd/neteditConfiguration.xsd">

    <input>
        <sumo-net-file value="C:\Users\Asus\Sumo\today\mogbazar.net.xml"/>
    </input>

    <output>
        <output-file value="C:\Users\Asus\Sumo\today\mogbazar.net.xml"/>
    </output>

    <processing>
        <geometry.min-radius.fix.railways value="false"/>
        <geometry.max-grade.fix value="false"/>
        <offset.disable-normalization value="true"/>
        <lefthand value="1"/>
    </processing>

    <junctions>
        <no-turnarounds value="true"/>
        <junctions.corner-detail value="5"/>
        <junctions.limit-turn-speed value="5.50"/>
        <rectangular-lane-cut value="0"/>
    </junctions>

    <pedestrian>
        <walkingareas value="0"/>
    </pedestrian>

</neteditConfiguration>
-->

<net version="1.20" junctionCornerDetail="5" lefthand="true" limitTurnSpeed="5.50" xmlns:xsi="http://www.w3.org/2001/XMLSchema-instance" xsi:noNamespaceSchemaLocation="http://sumo.dlr.de/xsd/net_file.xsd">

    <location netOffset="-233838.91,-2628562.26" convBoundary="0.00,0.00,3687.30,11622.38" origBoundary="90.388633,23.746726,90.425023,23.851362" projParameter="+proj=utm +zone=46 +ellps=WGS84 +datum=WGS84 +units=m +no_defs"/>

    <type id="highway.footway" priority="1" numLanes="1" speed="2.78" allow="pedestrian" oneway="1" width="2.00"/>
    <type id="highway.living_street" priority="2" numLanes="1" speed="2.78" disallow="tram rail_urban rail rail_electric rail_fast ship container cable_car subway aircraft wheelchair scooter drone" oneway="0"/>
    <type id="highway.motorway" priority="14" numLanes="2" speed="39.44" allow="private emergency authority army vip passenger hov taxi bus coach delivery truck trailer motorcycle evehicle custom1 custom2" oneway="1"/>
    <type id="highway.motorway_link" priority="9" numLanes="1" speed="22.22" allow="private emergency authority army vip passenger hov taxi bus coach delivery truck trailer motorcycle evehicle custom1 custom2" oneway="1"/>
    <type id="highway.path" priority="1" numLanes="1" speed="5.56" allow="pedestrian bicycle" oneway="0" width="2.00"/>
    <type id="highway.pedestrian" priority="1" numLanes="1" speed="2.78" allow="pedestrian" oneway="1" width="2.00"/>
    <type id="highway.primary" priority="12" numLanes="2" speed="27.78" disallow="tram rail_urban rail rail_electric rail_fast ship container cable_car subway aircraft wheelchair scooter drone" oneway="0"/>
    <type id="highway.primary_link" priority="7" numLanes="1" speed="22.22" disallow="tram rail_urban rail rail_electric rail_fast ship container cable_car subway aircraft wheelchair scooter drone" oneway="0"/>
    <type id="highway.residential" priority="3" numLanes="1" speed="13.89" disallow="tram rail_urban rail rail_electric rail_fast ship container cable_car subway aircraft wheelchair scooter drone" oneway="0"/>
    <type id="highway.secondary" priority="11" numLanes="1" speed="27.78" disallow="tram rail_urban rail rail_electric rail_fast ship container cable_car subway aircraft wheelchair scooter drone" oneway="0"/>
    <type id="highway.secondary_link" priority="6" numLanes="1" speed="22.22" disallow="tram rail_urban rail rail_electric rail_fast ship container cable_car subway aircraft wheelchair scooter drone" oneway="0"/>
    <type id="highway.service" priority="1" numLanes="1" speed="5.56" allow="pedestrian delivery bicycle" oneway="0"/>
    <type id="highway.tertiary" priority="10" numLanes="1" speed="22.22" disallow="tram rail_urban rail rail_electric rail_fast ship container cable_car subway aircraft wheelchair scooter drone" oneway="0"/>
    <type id="highway.tertiary_link" priority="5" numLanes="1" speed="22.22" disallow="tram rail_urban rail rail_electric rail_fast ship container cable_car subway aircraft wheelchair scooter drone" oneway="0"/>
    <type id="highway.track" priority="1" numLanes="1" speed="5.56" allow="pedestrian motorcycle moped bicycle" oneway="0"/>
    <type id="highway.unclassified" priority="4" numLanes="1" speed="13.89" disallow="tram rail_urban rail rail_electric rail_fast ship container cable_car subway aircraft wheelchair scooter drone" oneway="0"/>
    <type id="railway.rail" priority="20" numLanes="1" speed="44.44" allow="rail" oneway="1"/>

    <edge id=":10008605200_0" function="internal">
        <lane id=":10008605200_0_0" index="0" disallow="tram rail_urban rail rail_electric rail_fast ship container cable_car subway aircraft wheelchair scooter drone" speed="3.65" length="4.67" shape="971.88,1970.01 972.89,1971.04 973.75,1971.28 974.46,1970.74 975.02,1969.41"/>
    </edge>
    <edge id=":10008672139_0" function="internal">
        <lane id=":10008672139_0_0" index="0" disallow="tram rail_urban rail rail_electric rail_fast ship container cable_car subway aircraft wheelchair scooter drone" speed="18.05" length="11.78" shape="837.06,1164.08 837.02,1167.32 837.11,1169.96 837.34,1172.59 837.73,1175.82"/>
    </edge>
    <edge id=":10008672139_1" function="internal">
        <lane id=":10008672139_1_0" index="0" disallow="tram rail_urban rail rail_electric rail_fast ship container cable_car subway aircraft wheelchair scooter drone" speed="7.39" length="11.87" shape="837.06,1164.08 837.57,1166.46 839.24,1168.20 842.05,1169.30 846.02,1169.76"/>
    </edge>
    <edge id=":10008672139_2" function="internal">
        <lane id=":10008672139_2_0" index="0" disallow="tram rail_urban rail rail_electric rail_fast ship container cable_car subway aircraft wheelchair scooter drone" speed="3.65" length="4.67" shape="837.06,1164.08 837.83,1165.29 838.62,1165.71 839.43,1165.33 840.26,1164.15"/>
    </edge>
    <edge id=":10008672139_3" function="internal">
        <lane id=":10008672139_3_0" index="0" disallow="tram rail_urban rail rail_electric rail_fast ship container cable_car subway aircraft wheelchair scooter drone" speed="6.19" length="9.05" shape="840.90,1175.41 840.94,1172.87 841.81,1171.08 843.50,1170.05 846.02,1169.76"/>
    </edge>
    <edge id=":10008672139_4" function="internal">
        <lane id=":10008672139_4_0" index="0" disallow="tram rail_urban rail rail_electric rail_fast ship container cable_car subway aircraft wheelchair scooter drone" speed="18.05" length="11.29" shape="840.90,1175.41 840.51,1172.26 840.30,1169.79 840.22,1167.32 840.26,1164.15"/>
    </edge>
    <edge id=":10008672139_5" function="internal">
        <lane id=":10008672139_5_0" index="0" disallow="tram rail_urban rail rail_electric rail_fast ship container cable_car subway aircraft wheelchair scooter drone" speed="3.65" length="4.67" shape="840.90,1175.41 839.95,1174.32 839.11,1174.03 838.37,1174.53 837.73,1175.82"/>
    </edge>
    <edge id=":10008672139_6" function="internal">
        <lane id=":10008672139_6_0" index="0" disallow="tram rail_urban rail rail_electric rail_fast ship container cable_car subway aircraft wheelchair scooter drone" speed="7.06" length="9.86" shape="831.39,1169.63 833.86,1169.99 835.74,1171.14 837.03,1173.08 837.73,1175.82"/>
    </edge>
    <edge id=":10008672139_7" function="internal">
        <lane id=":10008672139_7_0" index="0" disallow="tram rail_urban rail rail_electric rail_fast ship container cable_car subway aircraft wheelchair scooter drone" speed="22.22" length="14.64" shape="831.39,1169.63 846.02,1169.76"/>
    </edge>
    <edge id=":10008672139_8" function="internal">
        <lane id=":10008672139_8_0" index="0" disallow="tram rail_urban rail rail_electric rail_fast ship container cable_car subway aircraft wheelchair scooter drone" speed="7.39" length="11.61" shape="831.39,1169.63 835.22,1169.24 837.98,1168.20 839.66,1166.50 840.26,1164.15"/>
    </edge>
    <edge id=":10008672150_0" function="internal">
        <lane id=":10008672150_0_0" index="0" allow="pedestrian delivery bicycle" speed="5.27" length="5.30" shape="837.39,1157.61 837.08,1159.08 836.41,1160.11 835.39,1160.73 834.02,1160.91"/>
    </edge>
    <edge id=":10008672150_1" function="internal">
        <lane id=":10008672150_1_0" index="0" allow="pedestrian delivery bicycle" speed="13.89" length="6.31" shape="837.39,1157.61 837.06,1163.92"/>
    </edge>
    <edge id=":10008672150_2" function="internal">
        <lane id=":10008672150_2_0" index="0" allow="pedestrian delivery bicycle" speed="3.65" length="4.67" shape="837.39,1157.61 838.09,1158.87 838.86,1159.33 839.69,1159.00 840.58,1157.86"/>
    </edge>
    <edge id=":10008672150_3" function="internal">
        <lane id=":10008672150_3_0" index="0" allow="pedestrian delivery bicycle" speed="4.99" length="5.06" shape="843.51,1161.12 842.14,1160.88 841.19,1160.26 840.67,1159.25 840.58,1157.86"/>
    </edge>
    <edge id=":10008672150_4" function="internal">
        <lane id=":10008672150_4_0" index="0" disallow="tram rail_urban rail rail_electric rail_fast ship container cable_car subway aircraft wheelchair scooter drone" speed="22.22" length="9.50" shape="843.51,1161.12 834.02,1160.91"/>
    </edge>
    <edge id=":10008672150_5" function="internal">
        <lane id=":10008672150_5_0" index="0" disallow="tram rail_urban rail rail_electric rail_fast ship container cable_car subway aircraft wheelchair scooter drone" speed="6.07" length="7.74" shape="843.51,1161.12 840.72,1161.23 838.71,1161.73 837.49,1162.63 837.06,1163.92"/>
    </edge>
    <edge id=":10008672150_6" function="internal">
        <lane id=":10008672150_6_0" index="0" allow="pedestrian delivery bicycle" speed="13.89" length="6.14" shape="840.26,1163.99 840.58,1157.86"/>
    </edge>
    <edge id=":10008672150_7" function="internal">
        <lane id=":10008672150_7_0" index="0" disallow="tram rail_urban rail rail_electric rail_fast ship container cable_car subway aircraft wheelchair scooter drone" speed="6.04" length="7.67" shape="840.26,1163.99 839.90,1162.68 838.73,1161.73 836.78,1161.14 834.02,1160.91"/>
    </edge>
    <edge id=":10008672150_8" function="internal">
        <lane id=":10008672150_8_0" index="0" disallow="tram rail_urban rail rail_electric rail_fast ship container cable_car subway aircraft wheelchair scooter drone" speed="3.65" length="4.67" shape="840.26,1163.99 839.49,1162.77 838.70,1162.36 837.89,1162.74 837.06,1163.92"/>
    </edge>
    <edge id=":10008672156_0" function="internal">
        <lane id=":10008672156_0_0" index="0" allow="pedestrian delivery bicycle" speed="5.56" length="8.27" shape="635.65,939.61 634.65,931.40"/>
    </edge>
    <edge id=":10008672156_1" function="internal">
        <lane id=":10008672156_1_0" index="0" allow="rail" speed="44.44" length="10.67" shape="628.64,937.97 638.38,933.61"/>
    </edge>
    <edge id=":10008672156_2" function="internal">
        <lane id=":10008672156_2_0" index="0" allow="pedestrian delivery bicycle" speed="5.56" length="8.31" shape="631.47,931.78 632.48,940.03"/>
    </edge>
    <edge id=":10013687599_0" function="internal">
        <lane id=":10013687599_0_0" index="0" disallow="pedestrian tram rail_urban rail rail_electric rail_fast ship container cable_car subway aircraft wheelchair scooter drone" speed="27.78" length="0.82" shape="1074.01,1342.57 1074.25,1341.47"/>
        <lane id=":10013687599_0_1" index="1" disallow="pedestrian tram rail_urban rail rail_electric rail_fast ship container cable_car subway aircraft wheelchair scooter drone" speed="27.78" length="0.82" shape="1077.21,1342.54 1077.39,1342.06"/>
    </edge>
    <edge id=":10013687604_0" function="internal">
        <lane id=":10013687604_0_0" index="0" disallow="tram rail_urban rail rail_electric rail_fast ship container cable_car subway aircraft wheelchair scooter drone" speed="13.83" length="16.61" shape="1128.98,1667.14 1126.80,1670.16 1124.78,1673.31 1123.54,1677.16 1123.67,1682.27"/>
    </edge>
    <edge id=":10013687604_1" function="internal">
        <lane id=":10013687604_1_0" index="0" disallow="tram rail_urban rail rail_electric rail_fast ship container cable_car subway aircraft wheelchair scooter drone" speed="16.67" length="14.95" shape="1120.01,1667.87 1123.67,1682.27"/>
        <lane id=":10013687604_1_1" index="1" disallow="tram rail_urban rail rail_electric rail_fast ship container cable_car subway aircraft wheelchair scooter drone" speed="16.67" length="14.95" shape="1123.12,1667.12 1126.82,1681.73"/>
    </edge>
    <edge id=":10013687611_0" function="internal">
        <lane id=":10013687611_0_0" index="0" disallow="tram rail_urban rail rail_electric rail_fast ship container cable_car subway aircraft wheelchair scooter drone" speed="11.11" length="11.77" shape="1145.75,1668.33 1144.57,1665.05 1143.86,1662.76 1143.27,1660.44 1142.43,1657.05"/>
    </edge>
    <edge id=":10013687611_1" function="internal">
        <lane id=":10013687611_1_0" index="0" disallow="tram rail_urban rail rail_electric rail_fast ship container cable_car subway aircraft wheelchair scooter drone" speed="8.31" length="13.87" shape="1145.75,1668.33 1144.03,1665.29 1141.56,1663.41 1138.35,1662.68 1134.39,1663.11"/>
    </edge>
    <edge id=":10013687611_2" function="internal">
        <lane id=":10013687611_2_0" index="0" disallow="tram rail_urban rail rail_electric rail_fast ship container cable_car subway aircraft wheelchair scooter drone" speed="11.11" length="12.12" shape="1142.75,1669.45 1141.53,1666.07 1140.80,1663.72 1140.19,1661.33 1139.33,1657.84"/>
    </edge>
    <edge id=":10013687612_0" function="internal">
        <lane id=":10013687612_0_0" index="0" disallow="tram rail_urban rail rail_electric rail_fast ship container cable_car subway aircraft wheelchair scooter drone" speed="16.67" length="7.34" shape="1116.08,1651.61 1117.81,1658.74"/>
    </edge>
    <edge id=":10013687612_1" function="internal">
        <lane id=":10013687612_1_0" index="0" disallow="tram rail_urban rail rail_electric rail_fast ship container cable_car subway aircraft wheelchair scooter drone" speed="7.12" length="9.82" shape="1116.08,1651.61 1116.81,1652.95 1118.51,1653.88 1121.18,1654.42 1124.81,1654.55"/>
    </edge>
    <edge id=":10013687612_2" function="internal">
        <lane id=":10013687612_2_0" index="0" disallow="tram rail_urban rail rail_electric rail_fast ship container cable_car subway aircraft wheelchair scooter drone" speed="16.67" length="7.09" shape="1119.24,1651.11 1120.93,1657.99"/>
    </edge>
    <edge id=":10013710126_0" function="internal">
        <lane id=":10013710126_0_0" index="0" disallow="tram rail_urban rail rail_electric rail_fast ship container cable_car subway aircraft wheelchair scooter drone" speed="16.67" length="50.14" shape="1153.64,1854.14 1162.35,1903.52"/>
    </edge>
    <edge id=":10013710126_1" function="internal">
        <lane id=":10013710126_1_0" index="0" disallow="tram rail_urban rail rail_electric rail_fast ship container cable_car subway aircraft wheelchair scooter drone" speed="22.23" length="7.18" shape="1156.80,1853.60 1157.34,1860.77"/>
        <lane id=":10013710126_1_1" index="1" disallow="tram rail_urban rail rail_electric rail_fast ship container cable_car subway aircraft wheelchair scooter drone" speed="22.23" length="11.55" shape="1156.80,1853.60 1158.04,1864.08 1158.11,1865.07"/>
    </edge>
    <edge id=":10013710126_3" function="internal">
        <lane id=":10013710126_3_0" index="0" disallow="tram rail_urban rail rail_electric rail_fast ship container cable_car subway aircraft wheelchair scooter drone" speed="16.67" length="50.13" shape="1156.80,1853.60 1165.50,1902.97"/>
    </edge>
    <edge id=":10013710126_4" function="internal">
        <lane id=":10013710126_4_0" index="0" disallow="tram rail_urban rail rail_electric rail_fast ship container cable_car subway aircraft wheelchair scooter drone" speed="22.23" length="40.48" shape="1157.34,1860.77 1157.58,1863.80 1157.52,1877.37 1156.86,1890.95 1155.83,1901.16"/>
    </edge>
    <edge id=":10013710126_5" function="internal">
        <lane id=":10013710126_5_0" index="0" disallow="tram rail_urban rail rail_electric rail_fast ship container cable_car subway aircraft wheelchair scooter drone" speed="22.23" length="37.90" shape="1158.11,1865.07 1159.01,1878.25 1159.37,1892.44 1158.79,1902.93"/>
    </edge>
    <edge id=":10013710127_0" function="internal">
        <lane id=":10013710127_0_0" index="0" disallow="tram rail_urban rail rail_electric rail_fast ship container cable_car subway aircraft wheelchair scooter drone" speed="27.78" length="8.20" shape="1093.94,1934.33 1091.54,1934.51 1089.86,1934.25 1088.19,1934.00 1085.79,1934.20"/>
    </edge>
    <edge id=":10013710133_0" function="internal">
        <lane id=":10013710133_0_0" index="0" disallow="tram rail_urban rail rail_electric rail_fast ship container cable_car subway aircraft wheelchair scooter drone" speed="27.78" length="19.64" shape="1141.72,1933.44 1161.16,1930.68"/>
    </edge>
    <edge id=":10013710133_1" function="internal">
        <lane id=":10013710133_1_0" index="0" disallow="tram rail_urban rail rail_electric rail_fast ship container cable_car subway aircraft wheelchair scooter drone" speed="16.90" length="5.77" shape="1141.18,1930.29 1146.95,1930.18"/>
        <lane id=":10013710133_1_1" index="1" disallow="tram rail_urban rail rail_electric rail_fast ship container cable_car subway aircraft wheelchair scooter drone" speed="16.46" length="8.06" shape="1141.18,1930.29 1147.26,1929.60 1149.19,1929.83"/>
    </edge>
    <edge id=":10013710133_3" function="internal">
        <lane id=":10013710133_3_0" index="0" disallow="tram rail_urban rail rail_electric rail_fast ship container cable_car subway aircraft wheelchair scooter drone" speed="27.78" length="19.74" shape="1141.18,1930.29 1160.72,1927.51"/>
    </edge>
    <edge id=":10013710133_4" function="internal">
        <lane id=":10013710133_4_0" index="0" disallow="tram rail_urban rail rail_electric rail_fast ship container cable_car subway aircraft wheelchair scooter drone" speed="16.90" length="16.76" shape="1146.95,1930.18 1147.25,1930.18 1151.65,1931.97 1155.82,1935.03 1161.21,1938.72"/>
    </edge>
    <edge id=":10013710133_5" function="internal">
        <lane id=":10013710133_5_0" index="0" disallow="tram rail_urban rail rail_electric rail_fast ship container cable_car subway aircraft wheelchair scooter drone" speed="16.46" length="13.31" shape="1149.19,1929.83 1151.69,1930.13 1155.88,1931.93 1161.27,1935.05"/>
    </edge>
    <edge id=":10013710135_0" function="internal">
        <lane id=":10013710135_0_0" index="0" disallow="tram rail_urban rail rail_electric rail_fast ship container cable_car subway aircraft wheelchair scooter drone" speed="27.78" length="10.35" shape="1161.28,1930.66 1171.51,1929.15"/>
    </edge>
    <edge id=":10013710135_1" function="internal">
        <lane id=":10013710135_1_0" index="0" disallow="tram rail_urban rail rail_electric rail_fast ship container cable_car subway aircraft wheelchair scooter drone" speed="7.85" length="4.06" shape="1160.83,1927.49 1164.61,1927.46 1164.88,1927.55"/>
    </edge>
    <edge id=":10013710135_2" function="internal">
        <lane id=":10013710135_2_0" index="0" disallow="tram rail_urban rail rail_electric rail_fast ship container cable_car subway aircraft wheelchair scooter drone" speed="27.78" length="10.27" shape="1160.83,1927.49 1171.00,1926.00"/>
    </edge>
    <edge id=":10013710135_7" function="internal">
        <lane id=":10013710135_7_0" index="0" disallow="tram rail_urban rail rail_electric rail_fast ship container cable_car subway aircraft wheelchair scooter drone" speed="7.85" length="9.24" shape="1164.88,1927.55 1167.50,1928.53 1169.50,1930.72 1170.60,1934.01"/>
    </edge>
    <edge id=":10013710135_3" function="internal">
        <lane id=":10013710135_3_0" index="0" disallow="tram rail_urban rail rail_electric rail_fast ship container cable_car subway aircraft wheelchair scooter drone" speed="6.09" length="7.88" shape="1165.92,1925.13 1166.53,1927.19 1167.67,1928.55 1169.33,1929.20 1171.51,1929.15"/>
    </edge>
    <edge id=":10013710135_4" function="internal">
        <lane id=":10013710135_4_0" index="0" disallow="tram rail_urban rail rail_electric rail_fast ship container cable_car subway aircraft wheelchair scooter drone" speed="16.67" length="9.82" shape="1169.09,1924.67 1169.02,1927.61 1168.22,1929.62 1167.45,1931.62 1167.45,1934.55"/>
        <lane id=":10013710135_4_1" index="1" disallow="tram rail_urban rail rail_electric rail_fast ship container cable_car subway aircraft wheelchair scooter drone" speed="16.67" length="9.82" shape="1169.09,1924.67 1170.60,1934.01"/>
    </edge>
    <edge id=":10013710135_6" function="internal">
        <lane id=":10013710135_6_0" index="0" disallow="tram rail_urban rail rail_electric rail_fast ship container cable_car subway aircraft wheelchair scooter drone" speed="3.93" length="2.66" shape="1169.09,1924.67 1169.29,1925.35 1169.68,1925.80 1170.25,1926.02 1171.00,1926.00"/>
    </edge>
    <edge id=":10013710136_0" function="internal">
        <lane id=":10013710136_0_0" index="0" disallow="tram rail_urban rail rail_electric rail_fast ship container cable_car subway aircraft wheelchair scooter drone" speed="27.78" length="18.28" shape="1183.07,1932.92 1180.08,1914.89"/>
    </edge>
    <edge id=":10013710136_1" function="internal">
        <lane id=":10013710136_1_0" index="0" disallow="tram rail_urban rail rail_electric rail_fast ship container cable_car subway aircraft wheelchair scooter drone" speed="9.88" length="10.70" shape="1183.07,1932.92 1181.79,1928.92 1179.46,1925.84 1177.23,1924.42"/>
    </edge>
    <edge id=":10013710136_2" function="internal">
        <lane id=":10013710136_2_0" index="0" disallow="tram rail_urban rail rail_electric rail_fast ship container cable_car subway aircraft wheelchair scooter drone" speed="7.61" length="3.32" shape="1179.91,1933.45 1179.93,1930.26 1179.99,1930.14"/>
    </edge>
    <edge id=":10013710136_3" function="internal">
        <lane id=":10013710136_3_0" index="0" disallow="tram rail_urban rail rail_electric rail_fast ship container cable_car subway aircraft wheelchair scooter drone" speed="27.78" length="18.26" shape="1179.91,1933.45 1176.93,1915.44"/>
    </edge>
    <edge id=":10013710136_7" function="internal">
        <lane id=":10013710136_7_0" index="0" disallow="tram rail_urban rail rail_electric rail_fast ship container cable_car subway aircraft wheelchair scooter drone" speed="9.88" length="6.00" shape="1177.23,1924.42 1176.07,1923.68 1171.62,1922.43"/>
    </edge>
    <edge id=":10013710136_8" function="internal">
        <lane id=":10013710136_8_0" index="0" disallow="tram rail_urban rail rail_electric rail_fast ship container cable_car subway aircraft wheelchair scooter drone" speed="7.61" length="9.58" shape="1179.99,1930.14 1181.20,1927.79 1183.70,1926.04 1187.44,1925.02"/>
    </edge>
    <edge id=":10013710136_4" function="internal">
        <lane id=":10013710136_4_0" index="0" disallow="tram rail_urban rail rail_electric rail_fast ship container cable_car subway aircraft wheelchair scooter drone" speed="5.39" length="4.72" shape="1171.71,1929.12 1173.71,1927.45 1174.35,1925.43"/>
    </edge>
    <edge id=":10013710136_5" function="internal">
        <lane id=":10013710136_5_0" index="0" disallow="tram rail_urban rail rail_electric rail_fast ship container cable_car subway aircraft wheelchair scooter drone" speed="27.78" length="16.30" shape="1171.19,1925.96 1176.43,1925.37 1180.48,1925.28 1183.95,1925.30 1187.44,1925.02"/>
    </edge>
    <edge id=":10013710136_6" function="internal">
        <lane id=":10013710136_6_0" index="0" disallow="tram rail_urban rail rail_electric rail_fast ship container cable_car subway aircraft wheelchair scooter drone" speed="8.51" length="2.17" shape="1171.19,1925.96 1173.27,1925.34"/>
    </edge>
    <edge id=":10013710136_9" function="internal">
        <lane id=":10013710136_9_0" index="0" disallow="tram rail_urban rail rail_electric rail_fast ship container cable_car subway aircraft wheelchair scooter drone" speed="5.39" length="6.77" shape="1174.35,1925.43 1174.73,1924.25 1174.53,1921.06 1172.91,1919.39"/>
    </edge>
    <edge id=":10013710136_10" function="internal">
        <lane id=":10013710136_10_0" index="0" disallow="tram rail_urban rail rail_electric rail_fast ship container cable_car subway aircraft wheelchair scooter drone" speed="8.51" length="14.02" shape="1173.27,1925.34 1175.66,1924.63 1178.63,1922.34 1180.10,1919.09 1180.08,1914.89"/>
    </edge>
    <edge id=":10013710140_0" function="internal">
        <lane id=":10013710140_0_0" index="0" disallow="tram rail_urban rail rail_electric rail_fast ship container cable_car subway aircraft wheelchair scooter drone" speed="27.78" length="13.60" shape="1172.71,1919.36 1168.72,1918.79 1165.96,1918.59 1163.19,1918.66 1159.16,1918.92"/>
    </edge>
    <edge id=":10013710140_1" function="internal">
        <lane id=":10013710140_1_0" index="0" disallow="tram rail_urban rail rail_electric rail_fast ship container cable_car subway aircraft wheelchair scooter drone" speed="6.45" length="10.90" shape="1172.71,1919.36 1169.36,1919.25 1167.10,1920.14 1165.95,1922.03 1165.89,1924.93"/>
    </edge>
    <edge id=":10013710140_2" function="internal">
        <lane id=":10013710140_2_0" index="0" disallow="tram rail_urban rail rail_electric rail_fast ship container cable_car subway aircraft wheelchair scooter drone" speed="27.78" length="12.11" shape="1171.42,1922.40 1167.87,1921.91 1165.42,1921.76 1162.95,1921.87 1159.36,1922.11"/>
    </edge>
    <edge id=":10013710140_3" function="internal">
        <lane id=":10013710140_3_0" index="0" disallow="tram rail_urban rail rail_electric rail_fast ship container cable_car subway aircraft wheelchair scooter drone" speed="16.67" length="12.25" shape="1163.98,1912.87 1165.89,1924.93"/>
        <lane id=":10013710140_3_1" index="1" disallow="tram rail_urban rail rail_electric rail_fast ship container cable_car subway aircraft wheelchair scooter drone" speed="16.67" length="12.25" shape="1167.14,1912.34 1169.06,1924.47"/>
    </edge>
    <edge id=":10013710142_0" function="internal">
        <lane id=":10013710142_0_0" index="0" disallow="tram rail_urban rail rail_electric rail_fast ship container cable_car subway aircraft wheelchair scooter drone" speed="16.28" length="16.98" shape="1185.13,1912.61 1182.15,1910.31 1178.90,1908.12 1176.07,1905.09 1174.35,1900.24"/>
    </edge>
    <edge id=":10013710142_1" function="internal">
        <lane id=":10013710142_1_0" index="0" disallow="tram rail_urban rail rail_electric rail_fast ship container cable_car subway aircraft wheelchair scooter drone" speed="19.45" length="15.25" shape="1180.06,1914.78 1177.52,1899.76"/>
        <lane id=":10013710142_1_1" index="1" disallow="tram rail_urban rail rail_electric rail_fast ship container cable_car subway aircraft wheelchair scooter drone" speed="19.45" length="15.25" shape="1176.90,1915.30 1174.35,1900.24"/>
    </edge>
    <edge id=":10013710148_0" function="internal">
        <lane id=":10013710148_0_0" index="0" disallow="tram rail_urban rail rail_electric rail_fast ship container cable_car subway aircraft wheelchair scooter drone" speed="27.78" length="0.54" shape="1254.30,1911.20 1254.14,1911.22 1254.03,1911.23 1253.93,1911.23 1253.77,1911.21"/>
    </edge>
    <edge id=":10013710148_1" function="internal">
        <lane id=":10013710148_1_0" index="0" disallow="tram rail_urban rail rail_electric rail_fast ship container cable_car subway aircraft wheelchair scooter drone" speed="3.65" length="1.44" shape="1254.30,1911.20 1253.27,1912.20"/>
    </edge>
    <edge id=":10013710148_4" function="internal">
        <lane id=":10013710148_4_0" index="0" disallow="tram rail_urban rail rail_electric rail_fast ship container cable_car subway aircraft wheelchair scooter drone" speed="3.65" length="3.23" shape="1253.27,1912.20 1253.02,1913.06 1253.56,1913.78 1254.89,1914.34"/>
    </edge>
    <edge id=":10013710148_2" function="internal">
        <lane id=":10013710148_2_0" index="0" disallow="tram rail_urban rail rail_electric rail_fast ship container cable_car subway aircraft wheelchair scooter drone" speed="27.78" length="1.62" shape="1253.28,1914.48 1253.76,1914.46 1254.09,1914.45 1254.42,1914.42 1254.89,1914.34"/>
    </edge>
    <edge id=":10013710148_3" function="internal">
        <lane id=":10013710148_3_0" index="0" disallow="tram rail_urban rail rail_electric rail_fast ship container cable_car subway aircraft wheelchair scooter drone" speed="3.78" length="1.60" shape="1253.28,1914.48 1254.63,1913.84 1254.69,1913.75"/>
    </edge>
    <edge id=":10013710148_5" function="internal">
        <lane id=":10013710148_5_0" index="0" disallow="tram rail_urban rail rail_electric rail_fast ship container cable_car subway aircraft wheelchair scooter drone" speed="3.78" length="3.23" shape="1254.69,1913.75 1255.16,1913.08 1254.87,1912.21 1253.77,1911.21"/>
    </edge>
    <edge id=":10891378063_0" function="internal">
        <lane id=":10891378063_0_0" index="0" allow="private emergency authority army vip passenger hov taxi bus coach delivery truck trailer motorcycle evehicle custom1 custom2" speed="39.44" length="23.29" shape="649.27,1784.89 644.57,1762.08"/>
    </edge>
    <edge id=":10891378063_1" function="internal">
        <lane id=":10891378063_1_0" index="0" allow="private emergency authority army vip passenger hov taxi bus coach delivery truck trailer motorcycle evehicle custom1 custom2" speed="30.83" length="4.20" shape="646.11,1785.36 645.96,1781.16"/>
    </edge>
    <edge id=":10891378063_2" function="internal">